
 **************************************************************************************************
 OpenFAST

 Copyright (C) 2020 National Renewable Energy Laboratory
 Copyright (C) 2020 Envision Energy USA LTD

 This program is licensed under Apache License Version 2.0 and comes with ABSOLUTELY NO WARRANTY.
 See the "LICENSE" file distributed with this software for details.
 **************************************************************************************************

 OpenFAST-v2.4.0-77-g45e01076
 Compile Info:
  - Compiler: GCC version 7.5.0
  - Architecture: 64 bit
  - Precision: double
  - Date: Dec  7 2020
  - Time: 15:50:55
 Execution Info:
  - Date: 12/07/2020
  - Time: 17:56:09+0000

 OpenFAST input file heading:
     IEA task 37 RWT turbine -- https://github.com/IEAWindTask37/IEA-3.4-130-RWT

 Running ElastoDyn.
 Nodal outputs section of ElastoDyn input file not found or improperly formatted.
 Running AeroDyn.
 Nodal output section of AeroDyn input file not found or improperly formatted.
 Warning: Turning off Unsteady Aerodynamics because C_nalpha is 0. (node 1, blade 1)
 Warning: Turning off Unsteady Aerodynamics because C_nalpha is 0. (node 2, blade 1)
 Warning: Turning off Unsteady Aerodynamics because C_nalpha is 0. (node 1, blade 2)
 Warning: Turning off Unsteady Aerodynamics because C_nalpha is 0. (node 2, blade 2)
 Warning: Turning off Unsteady Aerodynamics because C_nalpha is 0. (node 1, blade 3)
 Warning: Turning off Unsteady Aerodynamics because C_nalpha is 0. (node 2, blade 3)
 Running AeroAcoustics (v1.00.00, 18-Aug-2016).
 AeroAcoustics_IO: reading BL table:/openfast/build/reg_tests/glue-codes/openfast/IEA_LB_RWT-AeroAcoustics/Airfoils/AF00_BL.txt
 AeroAcoustics_IO: reading BL table:/openfast/build/reg_tests/glue-codes/openfast/IEA_LB_RWT-AeroAcoustics/Airfoils/AF01_BL.txt
 AeroAcoustics_IO: reading BL table:/openfast/build/reg_tests/glue-codes/openfast/IEA_LB_RWT-AeroAcoustics/Airfoils/AF02_BL.txt
 AeroAcoustics_IO: reading BL table:/openfast/build/reg_tests/glue-codes/openfast/IEA_LB_RWT-AeroAcoustics/Airfoils/AF03_BL.txt
 AeroAcoustics_IO: reading BL table:/openfast/build/reg_tests/glue-codes/openfast/IEA_LB_RWT-AeroAcoustics/Airfoils/AF04_BL.txt
 AeroAcoustics_IO: reading BL table:/openfast/build/reg_tests/glue-codes/openfast/IEA_LB_RWT-AeroAcoustics/Airfoils/AF05_BL.txt
 AeroAcoustics_IO: reading BL table:/openfast/build/reg_tests/glue-codes/openfast/IEA_LB_RWT-AeroAcoustics/Airfoils/AF06_BL.txt
 AeroAcoustics_IO: reading BL table:/openfast/build/reg_tests/glue-codes/openfast/IEA_LB_RWT-AeroAcoustics/Airfoils/AF07_BL.txt
 AeroAcoustics_IO: reading BL table:/openfast/build/reg_tests/glue-codes/openfast/IEA_LB_RWT-AeroAcoustics/Airfoils/AF08_BL.txt
 AeroAcoustics_IO: reading BL table:/openfast/build/reg_tests/glue-codes/openfast/IEA_LB_RWT-AeroAcoustics/Airfoils/AF09_BL.txt
 AeroAcoustics_IO: reading BL table:/openfast/build/reg_tests/glue-codes/openfast/IEA_LB_RWT-AeroAcoustics/Airfoils/AF10_BL.txt
 AeroAcoustics_IO: reading BL table:/openfast/build/reg_tests/glue-codes/openfast/IEA_LB_RWT-AeroAcoustics/Airfoils/AF11_BL.txt
 AeroAcoustics_IO: reading BL table:/openfast/build/reg_tests/glue-codes/openfast/IEA_LB_RWT-AeroAcoustics/Airfoils/AF12_BL.txt
 AeroAcoustics_IO: reading BL table:/openfast/build/reg_tests/glue-codes/openfast/IEA_LB_RWT-AeroAcoustics/Airfoils/AF13_BL.txt
 AeroAcoustics_IO: reading BL table:/openfast/build/reg_tests/glue-codes/openfast/IEA_LB_RWT-AeroAcoustics/Airfoils/AF14_BL.txt
 AeroAcoustics_IO: reading BL table:/openfast/build/reg_tests/glue-codes/openfast/IEA_LB_RWT-AeroAcoustics/Airfoils/AF15_BL.txt
 AeroAcoustics_IO: reading BL table:/openfast/build/reg_tests/glue-codes/openfast/IEA_LB_RWT-AeroAcoustics/Airfoils/AF16_BL.txt
 AeroAcoustics_IO: reading BL table:/openfast/build/reg_tests/glue-codes/openfast/IEA_LB_RWT-AeroAcoustics/Airfoils/AF17_BL.txt
 AeroAcoustics_IO: reading BL table:/openfast/build/reg_tests/glue-codes/openfast/IEA_LB_RWT-AeroAcoustics/Airfoils/AF18_BL.txt
 AeroAcoustics_IO: reading BL table:/openfast/build/reg_tests/glue-codes/openfast/IEA_LB_RWT-AeroAcoustics/Airfoils/AF19_BL.txt
 AeroAcoustics_IO: reading BL table:/openfast/build/reg_tests/glue-codes/openfast/IEA_LB_RWT-AeroAcoustics/Airfoils/AF20_BL.txt
 AeroAcoustics_IO: reading BL table:/openfast/build/reg_tests/glue-codes/openfast/IEA_LB_RWT-AeroAcoustics/Airfoils/AF21_BL.txt
 AeroAcoustics_IO: reading BL table:/openfast/build/reg_tests/glue-codes/openfast/IEA_LB_RWT-AeroAcoustics/Airfoils/AF22_BL.txt
 AeroAcoustics_IO: reading BL table:/openfast/build/reg_tests/glue-codes/openfast/IEA_LB_RWT-AeroAcoustics/Airfoils/AF23_BL.txt
 AeroAcoustics_IO: reading BL table:/openfast/build/reg_tests/glue-codes/openfast/IEA_LB_RWT-AeroAcoustics/Airfoils/AF24_BL.txt
 AeroAcoustics_IO: reading BL table:/openfast/build/reg_tests/glue-codes/openfast/IEA_LB_RWT-AeroAcoustics/Airfoils/AF25_BL.txt
 AeroAcoustics_IO: reading BL table:/openfast/build/reg_tests/glue-codes/openfast/IEA_LB_RWT-AeroAcoustics/Airfoils/AF26_BL.txt
 AeroAcoustics_IO: reading BL table:/openfast/build/reg_tests/glue-codes/openfast/IEA_LB_RWT-AeroAcoustics/Airfoils/AF27_BL.txt
 AeroAcoustics_IO: reading BL table:/openfast/build/reg_tests/glue-codes/openfast/IEA_LB_RWT-AeroAcoustics/Airfoils/AF28_BL.txt
 AeroAcoustics_IO: reading BL table:/openfast/build/reg_tests/glue-codes/openfast/IEA_LB_RWT-AeroAcoustics/Airfoils/AF29_BL.txt
 Running InflowWind.
  Time: 0 of 20 seconds.
                                                                                                   Time: 5 of 20 seconds.  Estimated final completion at 17:57:00.                                                                                                                                     Time: 10 of 20 seconds.  Estimated final completion at 17:56:58.                                                                                                                                    Time: 15 of 20 seconds.  Estimated final completion at 17:56:59.                                                                                                                                    Time: 20 of 20 seconds.  Estimated final completion at 17:56:59.                                                                                                                                   
  Total Real Time:       49.631 seconds
  Total CPU Time:        49.579 seconds
  Simulation CPU Time:   49.389 seconds
  Simulated Time:        20 seconds
  Time Ratio (Sim/CPU):  0.40494

  OpenFAST terminated normally.

